Version 4
SHEET 1 1052 2400
WIRE 112 1408 80 1408
WIRE 720 1408 656 1408
WIRE 880 1408 784 1408
WIRE 80 1440 80 1408
WIRE 624 1488 624 1440
WIRE 640 1488 624 1488
WIRE 752 1488 704 1488
WIRE 80 1536 80 1520
WIRE 720 1568 656 1568
WIRE 880 1568 784 1568
WIRE 624 1648 624 1600
WIRE 640 1648 624 1648
WIRE 752 1648 704 1648
WIRE 720 1728 656 1728
WIRE 880 1728 784 1728
WIRE 624 1808 624 1760
WIRE 640 1808 624 1808
WIRE 752 1808 704 1808
WIRE 304 1920 96 1920
WIRE 464 1920 400 1920
WIRE 96 1936 96 1920
WIRE 368 2128 320 2128
WIRE 480 2128 432 2128
WIRE 624 2128 576 2128
WIRE 688 2128 624 2128
WIRE 288 2224 288 2160
WIRE 368 2224 288 2224
WIRE 496 2224 464 2224
WIRE 624 2224 624 2128
WIRE 624 2224 560 2224
FLAG 80 1536 0
FLAG 592 1568 Vin
FLAG 880 1568 Vout2
FLAG 752 1648 Vout1
FLAG 112 1408 Vin
FLAG 592 1408 Vin
FLAG 880 1408 Vout1
FLAG 752 1488 0
FLAG 592 1728 Vin
FLAG 880 1728 Vout3
FLAG 752 1808 Vout2
FLAG 96 2016 0
FLAG 256 2128 Vin
SYMBOL voltage 80 1424 R0
WINDOW 123 0 0 Left 0
WINDOW 39 0 0 Left 0
SYMATTR InstName V1
SYMATTR Value 10
SYMBOL LTspiceControlLibrary\\TransferFunctions\\Proportional 736 1600 R0
SYMATTR Value K={A}
SYMATTR InstName U3
SYMBOL LTspiceControlLibrary\\Math\\Operands\\add 608 1600 R0
SYMATTR InstName U4
SYMBOL LTspiceControlLibrary\\TransferFunctions\\Proportional 688 1680 M0
SYMATTR Value K={B}
SYMATTR InstName U5
SYMBOL LTspiceControlLibrary\\TransferFunctions\\Proportional 736 1440 R0
SYMATTR Value K={A}
SYMATTR InstName U1
SYMBOL LTspiceControlLibrary\\Math\\Operands\\add 608 1440 R0
SYMATTR InstName U2
SYMBOL LTspiceControlLibrary\\TransferFunctions\\Proportional 688 1520 M0
SYMATTR Value K={B}
SYMATTR InstName U6
SYMBOL LTspiceControlLibrary\\TransferFunctions\\Proportional 736 1760 R0
SYMATTR Value K={A}
SYMATTR InstName U7
SYMBOL LTspiceControlLibrary\\Math\\Operands\\add 608 1760 R0
SYMATTR InstName U8
SYMBOL LTspiceControlLibrary\\TransferFunctions\\Proportional 688 1840 M0
SYMATTR Value K={B}
SYMATTR InstName U9
SYMBOL LTspiceControlLibrary\\Discrete\\ZeroOrderHold 320 1952 R0
SYMATTR Value T=0.01m
SYMATTR InstName U10
SYMBOL Misc\\signal 96 1920 R0
WINDOW 123 0 0 Left 0
WINDOW 39 0 0 Left 0
SYMATTR InstName V2
SYMATTR Value SINE(0 1 10k)
SYMBOL LTspiceControlLibrary\\TransferFunctions\\Proportional 384 2160 R0
SYMATTR Value K={A}
SYMATTR InstName U11
SYMBOL LTspiceControlLibrary\\Math\\Operands\\add 272 2160 R0
SYMATTR InstName U12
SYMBOL LTspiceControlLibrary\\TransferFunctions\\Proportional 544 2256 M0
SYMATTR Value K={B}
SYMATTR InstName U13
SYMBOL LTspiceControlLibrary\\Discrete\\ZeroOrderHold 496 2160 R0
SYMATTR Value T={T}
SYMATTR InstName U14
SYMBOL LTspiceControlLibrary\\Discrete\\ZeroOrderHold 448 2256 M0
SYMATTR Value T={T}
SYMATTR InstName U15
TEXT 80 96 Left 4 ;Closed-loop stability
TEXT 88 160 Left 2 ;Suppose we have a closed-loop system with a certain feedback gain:
TEXT 408 256 Center 2 ;Open-loop\ngain A
TEXT 408 384 Center 2 ;Feedback\ngain B
TEXT 96 496 Left 2 ;What conditions must the feedback gain satisfy so that the system is stable.\nmeaning its output doesn't grow to infinity as time goes on?
TEXT 96 576 Left 2 ;1) If the feedback adds the output of the OL system to its input then the output\nof the overall system will grow indefinitely. Therefore we need the feedback B\nto be negative.
TEXT 46 1572 Left 2 !.tran 1m
TEXT 648 328 Left 3 ;Gain =
TEXT 800 304 Left 3 ;A
TEXT 776 352 Left 3 ;1-AB
TEXT 888 320 Left 3 ;~
TEXT 936 352 Left 3 ;-B
TEXT 944 304 Left 3 ;1
TEXT 848 440 Left 2 ;If AB >> 1
TEXT 888 328 Left 3 ;~
TEXT 408 704 Center 2 ;Open-loop\ngain A
TEXT 408 832 Center 2 ;Feedback\ngain B
TEXT 648 776 Left 3 ;Gain =
TEXT 800 752 Left 3 ;A
TEXT 776 800 Left 3 ;1+AB
TEXT 888 768 Left 3 ;~
TEXT 944 800 Left 3 ;B
TEXT 944 752 Left 3 ;1
TEXT 848 888 Left 2 ;If AB >> 1
TEXT 888 776 Left 3 ;~
TEXT 88 960 Left 2 ;2) A negative feedback gain B is all we need as long as we are dealing with a\nreal transfer function, but what if the transfer function is complex and has a \nphase? If the phase is 180º wrt A the system will behave as if we have positive\nfeedback. \nThink of this as sine waves: if you substract two sinewaves with identic phases\nyou will get a sinewave with smaller ampitude, but if the waves are in opposite\nphases wou will get a sinewave with a bigger amplitude
TEXT 64 1272 Left 2 ;The only situation where a 180º can be allowed is if the gain is less than 1, since\nin this case the output will not blow up to infinity.
TEXT 32 1632 Left 2 !.param A 5\n.param B 0.1
TEXT 240 1464 Left 4 ;First iteration
TEXT 224 1608 Left 4 ;Second iteration
TEXT 224 1768 Left 4 ;Third iteration
TEXT 488 2032 Left 2 !.param T 0.01m
LINE Normal 166 256 96 256 2
LINE Normal 320 256 218 256 2
LINE Normal 193 397 193 279 2
LINE Normal 656 256 496 256 2
LINE Normal 592 400 592 256 2
LINE Normal 496 400 592 400 2
LINE Normal 192 400 320 400 2
LINE Normal 193 272 193 240
LINE Normal 208 256 176 256
LINE Normal 868 329 756 329
LINE Normal 980 329 932 329
LINE Normal 880 368 896 352 2
LINE Normal 912 368 896 352 2
LINE Normal 880 368 912 368 2
LINE Normal 896 416 896 352 2
LINE Normal 166 704 96 704 2
LINE Normal 320 704 218 704 2
LINE Normal 193 845 193 727 2
LINE Normal 656 704 496 704 2
LINE Normal 592 848 592 704 2
LINE Normal 496 848 592 848 2
LINE Normal 192 848 320 848 2
LINE Normal 208 704 176 704
LINE Normal 868 777 756 777
LINE Normal 980 777 932 777
LINE Normal 880 816 896 800 2
LINE Normal 912 816 896 800 2
LINE Normal 880 816 912 816 2
LINE Normal 896 864 896 800 2
RECTANGLE Normal 496 224 320 320 2
RECTANGLE Normal 496 352 320 448 2
RECTANGLE Normal 496 672 320 768 2
RECTANGLE Normal 496 800 320 896 2
CIRCLE Normal 217 231 169 279 2
CIRCLE Normal 217 679 169 727 2
