Version 4
SHEET 1 1180 1172
WIRE -464 208 -464 192
WIRE 64 208 64 192
WIRE 832 256 816 256
WIRE 256 288 256 192
WIRE 816 288 816 256
WIRE -464 336 -464 288
WIRE -336 336 -464 336
WIRE 192 336 176 336
WIRE -464 384 -464 336
WIRE 64 384 64 288
WIRE 352 384 256 384
WIRE -336 400 -336 336
WIRE -288 400 -336 400
WIRE 256 416 256 384
WIRE -336 432 -336 400
WIRE 880 448 864 448
WIRE 864 480 864 448
WIRE 64 512 64 464
WIRE 256 512 256 496
WIRE -464 528 -464 464
WIRE -336 528 -336 512
FLAG 816 368 0
FLAG 64 512 0
FLAG 256 512 0
FLAG 352 384 VoutEF
FLAG -464 528 0
FLAG -336 528 0
FLAG -288 400 VoutVD
FLAG 832 256 Vcc
FLAG 256 192 Vcc
FLAG 64 192 Vcc
FLAG -464 192 Vcc
FLAG 176 336 Vin
FLAG 864 560 0
FLAG 880 448 Vin
SYMBOL npn 192 288 R0
SYMATTR InstName Q1
SYMATTR Value 2N2222
SYMBOL res 48 192 R0
SYMATTR InstName R1
SYMATTR Value {2*R}
SYMBOL res 48 368 R0
SYMATTR InstName R2
SYMATTR Value {R}
SYMBOL res -480 192 R0
SYMATTR InstName R3
SYMATTR Value {2*R}
SYMBOL res -480 368 R0
SYMATTR InstName R4
SYMATTR Value {R}
SYMBOL current -336 432 R0
WINDOW 123 0 0 Left 0
WINDOW 39 0 0 Left 0
SYMATTR InstName I2
SYMATTR Value PULSE(1m 1 0 1m 1n 1 1)
SYMBOL voltage 816 272 R0
WINDOW 123 0 0 Left 0
WINDOW 39 0 0 Left 0
SYMATTR InstName V1
SYMATTR Value 15
SYMBOL current 256 416 R0
WINDOW 123 0 0 Left 0
WINDOW 39 0 0 Left 0
SYMATTR InstName I1
SYMATTR Value PULSE(1m 1 0 1m 1n 1 1)
SYMBOL voltage 864 464 R0
WINDOW 123 0 0 Left 0
WINDOW 39 0 0 Left 0
SYMATTR InstName V2
SYMATTR Value SINE(0 10 10k)
TEXT 788 152 Left 2 !.tran 1m
TEXT 784 184 Left 2 !.step param R 1 100 10
TEXT 504 -296 Left 2 !* Voltage drop at the voltage divider (% at 1A)\n.meas TRAN VdropVD MAX 100*(1-V(VoutVD)/5)\n \n* Voltage drop at the emitter follower (% at 1A)\n.meas TRAN VdropEF MAX 100*(1-V(VoutEF)/5)\n \n* Power dissipated at the VD resistors (mW)\n.meas TRAN PowerVD PARAM V(Vcc)*(I(R1)+I(R2))\n \n* Power dissipated at the VD resistors (mW)\n.meas TRAN PowerEF PARAM V(Vcc)*(I(R3)+I(R4))\n \n* Note: there is a trade-off btw stiffnes and power\n* Also the EF resistors consume less power
TEXT -480 -352 Left 5 ;Emitter follower
TEXT -480 -280 Left 2 ;A transistor application in which the emitter output follows the base input.
TEXT -480 -232 Left 2 ;Useful when we want to avoid loading effect in s voltage source: the base\nwill present an input impedance 1+hfe times greater than the load, and \nthe load will see a voltage source with 1+hfe times less output impedance.
TEXT -480 -136 Left 2 ;For instance: suppose we want to obtain a 5V source from a 15V source.\nWe compare a simple voltage divider with a VD plus an emitter follower.\nWe increase the load current from 1mA to 1 A and observe the voltage\ndrop at the output, which increases with the load.
TEXT -480 -8 Left 2 ;If the resistors used are small the voltage divider causes a voltage drop smaller \nthan the follower's (try R=1). If we want to use bigger resistors to reduce the \nconsumed power, however, its performance starts to degrade, but the follower\nworks better (try R=100)
TEXT -472 600 Left 2 ;Limitations: it cannot amplify negative voltages.
