Version 4
SHEET 1 1452 1732
WIRE -448 304 -464 304
WIRE -48 304 -64 304
WIRE -464 336 -464 304
WIRE -64 336 -64 304
WIRE -464 528 -464 512
WIRE -64 528 -64 512
WIRE 128 608 128 512
WIRE -464 656 -464 608
WIRE -336 656 -464 656
WIRE -64 656 -64 608
WIRE 64 656 -64 656
WIRE -464 704 -464 656
WIRE -64 704 -64 656
WIRE 224 704 128 704
WIRE -336 720 -336 656
WIRE -288 720 -336 720
WIRE 128 736 128 704
WIRE -336 752 -336 720
WIRE -64 832 -64 784
WIRE 128 832 128 816
WIRE -464 848 -464 784
WIRE -336 848 -336 832
WIRE -448 1168 -464 1168
WIRE -48 1168 -64 1168
WIRE -464 1200 -464 1168
WIRE -64 1200 -64 1168
WIRE -352 1488 -352 1392
WIRE 0 1488 0 1392
WIRE -416 1536 -432 1536
WIRE -64 1536 -80 1536
WIRE -256 1584 -352 1584
WIRE 96 1584 0 1584
WIRE -352 1616 -352 1584
WIRE -256 1616 -256 1584
WIRE 0 1616 0 1584
WIRE 96 1616 96 1584
WIRE -352 1712 -352 1696
WIRE -256 1712 -256 1696
WIRE 0 1712 0 1696
WIRE 96 1712 96 1696
FLAG -64 416 0
FLAG -64 832 0
FLAG 128 832 0
FLAG 224 704 VoutEF
FLAG -464 848 0
FLAG -336 848 0
FLAG -288 720 VoutVD
FLAG -48 304 Vcc
FLAG 128 512 Vcc
FLAG -64 512 Vcc
FLAG -464 512 Vcc
FLAG -464 416 0
FLAG -448 304 Load
FLAG -352 1712 0
FLAG -352 1392 Vcc
FLAG -256 1712 0
FLAG 0 1712 0
FLAG 96 1712 0
FLAG -64 1280 0
FLAG -48 1168 _Vcc
FLAG 0 1392 _Vcc
FLAG -448 1168 Vin
FLAG -464 1280 0
FLAG -432 1536 Vin
FLAG -80 1536 Vin
SYMBOL npn 64 608 R0
SYMATTR InstName Q1
SYMATTR Value 2N2222
SYMBOL res -80 512 R0
SYMATTR InstName R1
SYMATTR Value {2*R}
SYMBOL res -80 688 R0
SYMATTR InstName R2
SYMATTR Value {R}
SYMBOL res -480 512 R0
SYMATTR InstName R3
SYMATTR Value {2*R}
SYMBOL res -480 688 R0
SYMATTR InstName R4
SYMATTR Value {R}
SYMBOL voltage -64 320 R0
WINDOW 123 0 0 Left 0
WINDOW 39 0 0 Left 0
SYMATTR InstName V1
SYMATTR Value 15
SYMBOL voltage -464 320 R0
WINDOW 123 0 0 Left 0
WINDOW 39 0 0 Left 0
SYMATTR InstName V2
SYMATTR Value PULSE(5k 5 0 1m 1n 1 1)
SYMBOL voltage -464 1184 R0
WINDOW 123 0 0 Left 0
WINDOW 39 0 0 Left 0
SYMATTR InstName V3
SYMATTR Value PULSE(20 -20 0 1m 1n 1 1)
SYMBOL npn -416 1488 R0
SYMATTR InstName Q2
SYMATTR Value 2N2222
SYMBOL res -352 736 R0
SYMATTR InstName R6
SYMATTR Value R=V(load)
SYMBOL res 112 720 R0
SYMATTR InstName R7
SYMATTR Value R=V(load)
SYMBOL res -16 1600 R0
SYMATTR InstName R9
SYMATTR Value 1k
SYMBOL res 80 1600 R0
SYMATTR InstName R10
SYMATTR Value 100
SYMBOL res -272 1600 R0
SYMATTR InstName R5
SYMATTR Value 100
SYMBOL res -368 1600 R0
SYMATTR InstName R8
SYMATTR Value 1k
SYMBOL pnp -64 1488 R0
SYMATTR InstName Q4
SYMBOL voltage -64 1184 R0
WINDOW 123 0 0 Left 0
WINDOW 39 0 0 Left 0
SYMATTR InstName V6
SYMATTR Value -15
TEXT -16 -336 Left 2 !.tran 1m
TEXT 80 312 Left 2 !;.step param R 1 100 10\n.param R 1
TEXT -496 -352 Left 5 ;Emitter follower
TEXT -496 -280 Left 2 ;A transistor current amplificator in which the voltage at the emitter follows \nthe voltage base at the base.
TEXT -496 -216 Left 2 ;Useful when we want to avoid loading effect in a voltage source: the base\nwill present an input impedance 1+hfe times greater than the load, and \nthe load will see a voltage source with 1+hfe times less output impedance.
TEXT -496 -120 Left 2 ;For instance: suppose we want to obtain a 5V source from a 15V source.\nWe compare a simple voltage divider with a VD plus an emitter follower.\nWe increase the load current from 5kOhm to 5 Ohm (which, if the 5V are\nmaintained, should correspond to currents from 1mA to 1A) and observe \nthe voltage drop at the output, which increases with the load.
TEXT -496 48 Left 2 ;If the resistors used are small the voltage divider causes a voltage drop smaller \nthan the follower's (try R=1). If we want to use bigger resistors to reduce the \nconsumed power, however, its performance starts to degrade, but the follower\nworks better (try R=100)
TEXT -496 928 Left 2 ;A limitation of this configuation is that it cannot amplify negative voltages.
TEXT -496 184 Left 2 ;Conclusion: to maintain the stiffness of the voltage output in a voltage divider\nwe have to use little resistors, which results in more power waste, but with the\nemitter follower we can achieve good stiffness even with small resistors.
TEXT -496 968 Left 2 ;The transistor begins to work (meaning the emitter follows the base)\nonce the voltage between collector and base is lower than 0.6 V, and \nit stops again when the voltage at the base drops below 0.6V.
TEXT -496 1064 Left 2 ;A possible solution is using a PNP transistor, if we know the input voltage is \ngoing to be negative. If the input is bipolar then we must use both an NPN \nand a PNP transistor in what is called a push-pull configuration.
