Version 4
SHEET 1 1068 988
WIRE 512 48 496 48
WIRE 496 64 496 48
WIRE 512 64 496 64
WIRE 624 64 576 64
WIRE 416 80 272 80
WIRE 496 80 496 64
WIRE 496 80 416 80
WIRE 512 80 496 80
WIRE 496 96 496 80
WIRE 512 96 496 96
WIRE 512 112 400 112
WIRE -80 176 -176 176
WIRE 272 176 272 80
WIRE 272 176 16 176
WIRE 512 256 496 256
WIRE 496 272 496 256
WIRE 512 272 496 272
WIRE 624 272 576 272
WIRE 272 288 272 176
WIRE 304 288 272 288
WIRE 416 288 368 288
WIRE 496 288 496 272
WIRE 496 288 416 288
WIRE 512 288 496 288
WIRE 496 304 496 288
WIRE 512 304 496 304
WIRE 512 320 384 320
FLAG -176 256 0
FLAG 416 80 pwm1
FLAG 416 288 pwm2
FLAG 384 400 0
FLAG 400 192 0
SYMBOL LTspiceControlLibrary\\PulseModulations\\PWM -64 208 R0
SYMATTR Value Vin1=0 Vin2=1 Tperiod={T}
SYMATTR InstName U1
SYMBOL voltage -176 160 R0
WINDOW 123 0 0 Left 0
WINDOW 39 0 0 Left 0
SYMATTR InstName V2
SYMATTR Value 0.5
SYMBOL Digital\\inv 304 224 R0
SYMATTR InstName A1
SYMBOL bv 400 96 R0
SYMATTR InstName B4
SYMATTR Value V=delay(V(pwm1),dt*T)
SYMBOL bv 384 304 R0
SYMATTR InstName B5
SYMATTR Value V=delay(V(pwm2),dt*T)
SYMBOL Digital\\and 544 16 R0
SYMATTR InstName A2
SYMBOL Digital\\and 544 224 R0
SYMATTR InstName A3
TEXT -128 -8 Left 2 !.param f 100k\n.param T {1/f}\n.param dt 0.01
TEXT -210 354 Left 2 !.tran 0 {10*T} 0 {T/100}
TEXT -64 456 Left 2 ;60 ms
