Version 4
SHEET 1 1376 728
WIRE 112 -96 0 -96
WIRE 272 -96 192 -96
WIRE 368 -96 272 -96
WIRE 528 -96 448 -96
WIRE 736 -96 624 -96
WIRE 896 -96 832 -96
WIRE 528 -80 528 -96
WIRE 0 -64 0 -96
WIRE 272 -64 272 -96
WIRE 624 -64 624 -96
WIRE 0 32 0 16
WIRE 272 32 272 0
WIRE 528 32 528 0
WIRE 624 32 624 16
WIRE 240 224 0 224
WIRE 528 224 320 224
WIRE 736 224 624 224
WIRE 528 240 528 224
WIRE 0 256 0 224
WIRE 624 256 624 224
WIRE 0 352 0 336
WIRE 528 352 528 320
WIRE 624 352 624 336
FLAG 272 32 0
FLAG 0 32 0
FLAG 528 32 0
FLAG 624 32 0
FLAG 960 -112 Q
FLAG 128 -144 Q
FLAG 960 -80 _Q
FLAG 384 -144 _Q
FLAG 176 -144 0
FLAG 432 -144 0
FLAG 624 352 0
FLAG 736 224 Req
FLAG 0 352 0
FLAG 528 352 0
SYMBOL sw 208 -96 R90
SYMATTR InstName S1
SYMBOL sw 464 -96 R90
SYMATTR InstName S2
SYMBOL cap 256 -64 R0
SYMATTR InstName C1
SYMATTR Value {C}
SYMBOL voltage 0 -80 R0
WINDOW 123 0 0 Left 0
WINDOW 39 0 0 Left 0
SYMATTR InstName V1
SYMATTR Value 1
SYMBOL res 512 -96 R0
SYMATTR InstName R1
SYMATTR Value 1
SYMBOL LTspiceControlLibrary\\PulseModulations\\PWM 752 -64 R0
WINDOW 3 -50 4 Left 2
SYMATTR Value Tperiod={1/f}
SYMATTR Value2 Vin1=0 Vin2=1 Tdelay=0 tripdt=1m*Tperiod
SYMATTR InstName U1
SYMBOL LTspiceControlLibrary\\PulseModulations\\ComplementaryBufferWithDeadtime 896 -160 R0
WINDOW 3 -33 120 Left 2
SYMATTR InstName U2
SYMATTR Value Tdead=1m*1/100k
SYMBOL voltage 624 -80 R0
WINDOW 123 0 0 Left 0
WINDOW 39 0 0 Left 0
SYMATTR InstName V2
SYMATTR Value 0.5
SYMBOL voltage 624 240 R0
WINDOW 123 0 0 Left 0
WINDOW 39 0 0 Left 0
SYMATTR InstName V3
SYMATTR Value {1/(C*f)}
SYMBOL voltage 0 240 R0
WINDOW 123 0 0 Left 0
WINDOW 39 0 0 Left 0
SYMATTR InstName V4
SYMATTR Value 1
SYMBOL res 512 224 R0
SYMATTR InstName R2
SYMATTR Value 1
SYMBOL res 336 208 R90
WINDOW 0 0 56 VBottom 2
WINDOW 3 32 56 VTop 2
SYMATTR InstName R3
SYMATTR Value R=V(Req)
TEXT 560 -288 Left 2 !.model SW SW(Ron=1u, Roff=1Meg, Vt=0.5)
TEXT 558 -320 Left 2 !.tran 1m
TEXT -24 560 Left 2 !.param c 100u;.step param c 10u 100u 10u
TEXT 0 -304 Left 5 ;Switched capacitor
TEXT -16 -232 Left 2 ;A capacitor to ground that is charged and discharged continuously to regulate the current\ndelivered to a circuit. It behaves, effectively, as a controlled resistor.
TEXT -16 104 Left 2 ;It is equivalent to a series resistor with value 1/fC, where f is the switching frequency\nand C is the capacity. A derivation of this result can be found at:\nhttps://en.wikipedia.org/wiki/Switched_capacitor
TEXT -24 592 Left 2 !.step param f 1k 10k 1k
TEXT -32 496 Left 2 ;Run a frequency or capacity sweep and plot the average measures of the current through\nthe load in each circuit: they should be closely related the same.
TEXT -32 624 Left 2 !.meas TRAN Iswc AVG I(R1)\n.meas TRAN Ireq AVG I(R2)\n.meas TRAN Idif AVG I(R2)-I(R1)
